*Heading
** Job name: kirigami_magnetic_sheet_d11_t015_m03_0604 Model name: Model-5
** Generated by: Abaqus/CAE 2022
*Preprint, echo=NO, model=NO, history=NO, contact=NO
**
** PARTS
**
*Part, name=kirigami_0604
*Node
      1,         -33.,   20.1971016, -0.150000006
      2,         -33.,    19.594202, -0.150000006
      3,         -33.,   18.9913044, -0.150000006
      4,         -33.,    18.086956, -0.150000006
      5,         -33.,   17.4840584, -0.150000006
      6,         -33.,   16.8811588, -0.150000006
      7,         -33.,   16.2782612, -0.150000006
      8,         -33.,   15.6753626, -0.150000006
      9,         -33.,    15.072464, -0.150000006
     10,         -33.,   14.1681156, -0.150000006
     11,         -33.,    13.565217, -0.150000006
     12,         -33.,   12.9623184, -0.150000006
     13,         -33.,   12.3594198, -0.150000006
     14,         -33.,   11.7565222, -0.150000006
     15,         -33.,   11.1536236, -0.150000006
     16,         -33.,    10.550725, -0.150000006
     17,         -33.,   9.64637661, -0.150000006
     18,         -33.,   9.04347801, -0.150000006
     19,         -33.,   8.44057941, -0.150000006
     20,         -33.,   7.83768129, -0.150000006
** ... 23030 like lines cut
*Element, type=C3D6
    1,  1996,  3645,   373, 13521, 15170, 11898
    2,   373,   372,  7224, 11898, 11897, 18749
    3,  3644,   371,  7150, 15169, 11896, 18675
    4,   371,   374,  8501, 11896, 11899, 20026
    5,  9323,  2020, 10924, 20848, 13545, 22449
    6,  3296,  3295, 10551, 14821, 14820, 22076
    7,  8540,  8660,  9309, 20065, 20185, 20834
    8,  2040,  3299,  5308, 13565, 14824, 16833
    9,    50,  2041,  3301, 11575, 13566, 14826
   10,  1754,  5686,  8350, 13279, 17211, 19875
   11,  3675,  3674,  5626, 15200, 15199, 17151
   12,  3674,  5366,  5626, 15199, 16891, 17151
   13,  3676,   402,  5309, 15201, 11927, 16834
   14,  2025,  5309,  5699, 13550, 16834, 17224
   15,  2023,  5317,  7888, 13548, 16842, 19413
   16,  7678,  5308, 10991, 19203, 16833, 22516
   17,  3299,    49,  5308, 14824, 11574, 16833
   18,  7132,  1996, 10641, 18657, 13521, 22166
   19, 11366,  1995, 11446, 22891, 13520, 22971
   20, 11511,  1986, 11521, 23036, 13511, 23046
** ... 19751 like lines cut
*End Part
**  
**
** ASSEMBLY
**
*Assembly, name=Assembly
**  
*Instance, name=kirigami_0604-1, part=kirigami_0604
*End Instance
**  
*End Assembly
** 
** MATERIALS
** 
*Material, name="dragon skin"
*Elastic
 0.876, 0.36
** ----------------------------------------------------------------
** 
** STEP: Step-1
** 
*Step, name=Step-1, nlgeom=NO
*Static
1., 1., 1e-05, 1.
** 
** BOUNDARY CONDITIONS
** 
** Name: BC-1 Type: Displacement/Rotation
*Boundary
Set-1, 1, 1
Set-1, 2, 2
Set-1, 3, 3, 0.01
Set-1, 4, 4
Set-1, 5, 5
Set-1, 6, 6
** Name: BC-2 Type: Displacement/Rotation
*Boundary
Set-2, 1, 1
Set-2, 2, 2
Set-2, 3, 3, 0.01
Set-2, 4, 4
Set-2, 5, 5
Set-2, 6, 6
** Name: BC-3 Type: Symmetry/Antisymmetry/Encastre
*Boundary
Set-3, ENCASTRE
** Name: BC-4 Type: Symmetry/Antisymmetry/Encastre
*Boundary
Set-4, ENCASTRE
** Name: BC-5 Type: Symmetry/Antisymmetry/Encastre
*Boundary
Set-5, ENCASTRE
** Name: BC-6 Type: Symmetry/Antisymmetry/Encastre
*Boundary
Set-7, ENCASTRE
** 
** OUTPUT REQUESTS
** 
*Restart, write, frequency=0
*node file
u
** 
** FIELD OUTPUT: F-Output-1
** 
*Output, field, variable=PRESELECT
** 
** HISTORY OUTPUT: H-Output-1
** 
*Output, history, variable=PRESELECT
*End Step
